E3_ligand
     RDKit          3D

 38 41  0  0  1  0  0  0  0  0999 V2000
  -10.8469   -0.6622   -0.1890 C   0  0  0  0  0  0  0  0  0  0  0  0
  -11.0929   -1.5643   -1.4427 C   0  0  1  0  0  0  0  0  0  0  0  0
   -4.7488   -0.6031    0.2641 C   0  0  0  0  0  0  0  0  0  0  0  0
  -12.2689   -2.4090   -1.1855 N   0  0  0  0  0  0  0  0  0  0  0  0
   -9.4973    0.0764    1.7423 C   0  0  2  0  0  0  0  0  0  0  0  0
   -7.0687   -0.5856    1.8200 C   0  0  0  0  0  0  0  0  0  0  0  0
   -9.3284    1.6228    1.6289 C   0  0  0  0  0  0  0  0  0  0  0  0
  -10.5854    5.6742    2.3948 C   0  0  0  0  0  0  0  0  0  0  0  0
  -14.2494   -3.5881    1.3507 C   0  0  0  0  0  0  0  0  0  0  0  0
   -8.4835   -1.3981   -0.1063 C   0  0  0  0  0  0  0  0  0  0  0  0
   -7.1401   -0.9671    0.4701 C   0  0  0  0  0  0  0  0  0  0  0  0
   -5.9752   -0.9508   -0.3031 C   0  0  0  0  0  0  0  0  0  0  0  0
   -4.6790   -0.2525    1.6099 C   0  0  0  0  0  0  0  0  0  0  0  0
   -5.8390   -0.2426    2.3843 C   0  0  0  0  0  0  0  0  0  0  0  0
   -8.3599   -0.5352    2.6161 C   0  0  0  0  0  0  0  0  0  0  0  0
  -13.7118   -4.0290   -0.0195 C   0  0  1  0  0  0  0  0  0  0  0  0
  -10.3289    3.7267    0.7049 C   0  0  2  0  0  0  0  0  0  0  0  0
   -9.0522    4.4569    0.2009 C   0  0  0  0  0  0  0  0  0  0  0  0
   -8.3196    5.2465    1.2982 C   0  0  0  0  0  0  0  0  0  0  0  0
   -9.2518    6.2768    1.9580 C   0  0  0  0  0  0  0  0  0  0  0  0
  -11.0887    4.4865    1.8126 C   0  0  0  0  0  0  0  0  0  0  0  0
  -12.3399    4.0173    2.2470 C   0  0  0  0  0  0  0  0  0  0  0  0
  -13.1049    4.7115    3.1812 C   0  0  0  0  0  0  0  0  0  0  0  0
  -12.3161   -3.4053   -0.2840 C   0  0  0  0  0  0  0  0  0  0  0  0
  -12.6022    5.8735    3.7519 C   0  0  0  0  0  0  0  0  0  0  0  0
  -11.3524    6.3454    3.3580 C   0  0  0  0  0  0  0  0  0  0  0  0
  -11.1745   -0.7719   -2.8055 C   0  0  0  0  0  0  0  0  0  0  0  0
   -9.8029   -0.1509   -3.1794 C   0  0  0  0  0  0  0  0  0  0  0  0
  -11.5744   -1.7357   -3.9545 C   0  0  0  0  0  0  0  0  0  0  0  0
  -12.2196    0.3719   -2.7571 C   0  0  0  0  0  0  0  0  0  0  0  0
  -13.4374   -6.0653   -1.4333 C   0  0  0  0  0  0  0  0  0  0  0  0
  -10.2156    2.2765    0.8659 N   0  0  0  0  0  0  0  0  0  0  0  0
  -13.6203   -5.5053   -0.1095 N   0  0  0  0  0  0  0  0  0  0  0  0
   -9.6197   -0.5970    0.4112 N   0  0  0  0  0  0  0  0  0  0  0  0
   -8.4251    2.1877    2.2434 O   0  0  0  0  0  0  0  0  0  0  0  0
   -3.6078   -0.6073   -0.4943 O   0  0  0  0  0  0  0  0  0  0  0  0
  -11.3274   -3.8097    0.3352 O   0  0  0  0  0  0  0  0  0  0  0  0
  -11.8337   -0.0497    0.2355 O   0  0  0  0  0  0  0  0  0  0  0  0
  1  2  1  0
  1 34  1  0
  1 38  2  0
  2  4  1  1
  2 27  1  0
  3 12  2  0
  3 13  1  0
  3 36  1  0
  4 24  1  0
  5  7  1  6
  5 15  1  0
  5 34  1  0
  6 11  2  0
  6 14  1  0
  6 15  1  0
  7 32  1  0
  7 35  2  0
  8 20  1  0
  8 21  2  0
  8 26  1  0
 16  9  1  1
 10 11  1  0
 10 34  1  0
 11 12  1  0
 13 14  2  0
 16 24  1  0
 16 33  1  0
 17 18  1  0
 17 21  1  0
 17 32  1  1
 18 19  1  0
 19 20  1  0
 21 22  1  0
 22 23  2  0
 23 25  1  0
 24 37  2  0
 25 26  2  0
 27 28  1  0
 27 29  1  0
 27 30  1  0
 31 33  1  0
M  END
$$$$
