ligand
     RDKit          3D

 85 92  0  0  1  0  0  0  0  0999 V2000
  -21.8311  -32.0006    9.4522 C   0  0  0  0  0  0  0  0  0  0  0  0
  -26.1918  -34.0111   12.1343 C   0  0  0  0  0  0  0  0  0  0  0  0
  -26.8936  -36.7630   14.5194 C   0  0  0  0  0  0  0  0  0  0  0  0
  -30.6444  -34.6743   15.9526 C   0  0  0  0  0  0  0  0  0  0  0  0
  -29.5426  -32.4272   18.6969 C   0  0  0  0  0  0  0  0  0  0  0  0
  -29.7687  -35.4771   14.9828 C   0  0  0  0  0  0  0  0  0  0  0  0
  -30.5325  -33.1279   17.7592 C   0  0  0  0  0  0  0  0  0  0  0  0
  -24.1129  -31.2000   23.1063 C   0  0  0  0  0  0  0  0  0  0  0  0
  -25.0014  -32.0089   24.0941 C   0  0  1  0  0  0  0  0  0  0  0  0
  -27.7347  -30.8190   18.5899 C   0  0  0  0  0  0  0  0  0  0  0  0
  -25.3735  -33.2457   23.3987 N   0  0  0  0  0  0  0  0  0  0  0  0
  -23.7916  -29.3993   21.4156 C   0  0  2  0  0  0  0  0  0  0  0  0
  -25.6656  -29.2914   19.7393 C   0  0  0  0  0  0  0  0  0  0  0  0
  -22.9030  -28.4710   22.2768 C   0  0  0  0  0  0  0  0  0  0  0  0
  -18.3845  -28.0630   23.8513 C   0  0  0  0  0  0  0  0  0  0  0  0
  -27.4589  -34.7610   21.1187 C   0  0  0  0  0  0  0  0  0  0  0  0
  -26.1317  -30.2027   22.0356 C   0  0  0  0  0  0  0  0  0  0  0  0
  -26.4449  -30.1323   20.5464 C   0  0  0  0  0  0  0  0  0  0  0  0
  -27.4669  -30.8902   19.9665 C   0  0  0  0  0  0  0  0  0  0  0  0
  -26.9549  -29.9727   17.8024 C   0  0  0  0  0  0  0  0  0  0  0  0
  -25.9317  -29.2171   18.3699 C   0  0  0  0  0  0  0  0  0  0  0  0
  -24.5546  -28.4905   20.4032 C   0  0  0  0  0  0  0  0  0  0  0  0
  -26.7555  -35.0396   22.4645 C   0  0  1  0  0  0  0  0  0  0  0  0
  -20.5758  -27.5868   22.5645 C   0  0  2  0  0  0  0  0  0  0  0  0
  -19.6727  -26.8456   21.5575 C   0  0  0  0  0  0  0  0  0  0  0  0
  -18.5696  -26.0596   22.2685 C   0  0  0  0  0  0  0  0  0  0  0  0
  -17.6361  -27.0108   23.0307 C   0  0  0  0  0  0  0  0  0  0  0  0
  -19.7579  -28.3477   23.6340 C   0  0  0  0  0  0  0  0  0  0  0  0
  -20.3562  -29.3447   24.4225 C   0  0  0  0  0  0  0  0  0  0  0  0
  -19.6440  -30.0471   25.3888 C   0  0  0  0  0  0  0  0  0  0  0  0
  -26.6221  -33.7245   23.2622 C   0  0  0  0  0  0  0  0  0  0  0  0
  -18.3002  -29.7651   25.5913 C   0  0  0  0  0  0  0  0  0  0  0  0
  -17.6818  -28.7819   24.8265 C   0  0  0  0  0  0  0  0  0  0  0  0
  -28.2574  -37.3547   14.9181 C   0  0  0  0  0  0  0  0  0  0  0  0
  -25.8553  -35.1429   13.1123 C   0  0  0  0  0  0  0  0  0  0  0  0
  -25.2178  -32.1809   10.9669 C   0  0  0  0  0  0  0  0  0  0  0  0
  -23.8724  -31.5131   10.6597 C   0  0  0  0  0  0  0  0  0  0  0  0
  -21.9950  -34.0919    8.0198 C   0  0  0  0  0  0  0  0  0  0  0  0
  -21.1898  -35.3431    8.4370 C   0  0  0  0  0  0  0  0  0  0  0  0
  -19.7112  -35.2616    8.0096 C   0  0  0  0  0  0  0  0  0  0  0  0
  -19.0650  -33.9443    8.5046 C   0  0  2  0  0  0  0  0  0  0  0  0
  -19.8882  -32.7011    8.0713 C   0  0  0  0  0  0  0  0  0  0  0  0
  -16.5091  -33.9238    8.7542 C   0  0  0  0  0  0  0  0  0  0  0  0
  -15.4796  -33.7479    7.8228 C   0  0  0  0  0  0  0  0  0  0  0  0
  -16.1387  -33.6098    6.5756 C   0  0  0  0  0  0  0  0  0  0  0  0
  -15.5616  -33.3996    5.2107 C   0  0  0  0  0  0  0  0  0  0  0  0
  -16.0293  -34.1433    4.1232 C   0  0  0  0  0  0  0  0  0  0  0  0
  -15.5007  -33.9338    2.8526 C   0  0  0  0  0  0  0  0  0  0  0  0
  -14.5032  -32.9803    2.6488 C   0  0  0  0  0  0  0  0  0  0  0  0
  -14.0356  -32.2330    3.7409 C   0  0  0  0  0  0  0  0  0  0  0  0
  -14.5639  -32.4420    5.0113 C   0  0  0  0  0  0  0  0  0  0  0  0
  -13.0549  -31.9177    1.0578 C   0  0  0  0  0  0  0  0  0  0  0  0
  -11.7100  -32.2824    1.1693 C   0  0  0  0  0  0  0  0  0  0  0  0
  -10.7069  -31.3607    0.8670 C   0  0  0  0  0  0  0  0  0  0  0  0
  -11.0448  -30.0732    0.4487 C   0  0  0  0  0  0  0  0  0  0  0  0
  -12.3862  -29.7074    0.3305 C   0  0  0  0  0  0  0  0  0  0  0  0
  -13.3911  -30.6279    0.6322 C   0  0  0  0  0  0  0  0  0  0  0  0
  -14.0551  -33.8306    8.0542 C   0  0  0  0  0  0  0  0  0  0  0  0
  -24.3999  -32.2626   25.5362 C   0  0  0  0  0  0  0  0  0  0  0  0
  -25.5025  -32.8650   26.4478 C   0  0  0  0  0  0  0  0  0  0  0  0
  -23.9465  -30.9320   26.1936 C   0  0  0  0  0  0  0  0  0  0  0  0
  -23.2089  -33.2612   25.5455 C   0  0  0  0  0  0  0  0  0  0  0  0
  -27.4371  -37.3644   22.8433 C   0  0  0  0  0  0  0  0  0  0  0  0
  -14.6895  -30.2655    0.5152 F   0  0  0  0  0  0  0  0  0  0  0  0
  -10.0726  -29.1801    0.1565 F   0  0  0  0  0  0  0  0  0  0  0  0
  -21.6246  -28.3536   21.8790 N   0  0  0  0  0  0  0  0  0  0  0  0
  -21.2671  -32.9158    8.5443 N   0  0  0  0  0  0  0  0  0  0  0  0
  -17.6763  -33.8379    8.0269 N   0  0  0  0  0  0  0  0  0  0  0  0
  -17.4456  -33.6628    6.7179 N   0  0  0  0  0  0  0  0  0  0  0  0
  -13.6373  -33.3172    9.2150 N   0  0  0  0  0  0  0  0  0  0  0  0
  -16.5054  -34.1599   10.1054 N   0  0  0  0  0  0  0  0  0  0  0  0
  -27.4597  -35.9987   23.3449 N   0  0  0  0  0  0  0  0  0  0  0  0
  -24.6682  -30.2829   22.2515 N   0  0  0  0  0  0  0  0  0  0  0  0
  -23.3896  -27.8955   23.2511 O   0  0  0  0  0  0  0  0  0  0  0  0
  -28.7261  -31.5332   17.9447 O   0  0  0  0  0  0  0  0  0  0  0  0
  -29.8129  -33.9441   16.8447 O   0  0  0  0  0  0  0  0  0  0  0  0
  -29.0349  -36.4584   15.7086 O   0  0  0  0  0  0  0  0  0  0  0  0
  -27.6255  -33.1738   23.7231 O   0  0  0  0  0  0  0  0  0  0  0  0
  -27.0609  -35.7842   13.5033 O   0  0  0  0  0  0  0  0  0  0  0  0
  -24.9976  -33.3306   11.7736 O   0  0  0  0  0  0  0  0  0  0  0  0
  -23.0985  -32.3423    9.8001 O   0  0  0  0  0  0  0  0  0  0  0  0
  -21.2607  -30.9986    9.8941 O   0  0  0  0  0  0  0  0  0  0  0  0
  -14.0405  -32.8292    1.3552 O   0  0  0  0  0  0  0  0  0  0  0  0
  -13.2862  -34.3295    7.2350 O   0  0  0  0  0  0  0  0  0  0  0  0
  -22.9022  -31.4277   23.1298 O   0  0  0  0  0  0  0  0  0  0  0  0
  1 67  1  0
  1 81  1  0
  1 82  2  0
  2 35  1  0
  2 80  1  0
  3 34  1  0
  3 79  1  0
  4  6  1  0
  4 76  1  0
  5  7  1  0
  5 75  1  0
  6 77  1  0
  7 76  1  0
  8  9  1  0
  8 73  1  0
  8 85  2  0
  9 11  1  6
  9 59  1  0
 10 19  2  0
 10 20  1  0
 10 75  1  0
 11 31  1  0
 12 14  1  1
 12 22  1  0
 12 73  1  0
 13 18  2  0
 13 21  1  0
 13 22  1  0
 14 66  1  0
 14 74  2  0
 15 27  1  0
 15 28  2  0
 15 33  1  0
 23 16  1  6
 17 18  1  0
 17 73  1  0
 18 19  1  0
 20 21  2  0
 23 31  1  0
 23 72  1  0
 24 25  1  0
 24 28  1  0
 24 66  1  6
 25 26  1  0
 26 27  1  0
 28 29  1  0
 29 30  2  0
 30 32  1  0
 31 78  2  0
 32 33  2  0
 34 77  1  0
 35 79  1  0
 36 37  1  0
 36 80  1  0
 37 81  1  0
 38 39  1  0
 38 67  1  0
 39 40  1  0
 40 41  1  0
 41 42  1  0
 41 68  1  6
 42 67  1  0
 43 44  2  0
 43 68  1  0
 43 71  1  0
 44 45  1  0
 44 58  1  0
 45 46  1  0
 45 69  2  0
 46 47  2  0
 46 51  1  0
 47 48  1  0
 48 49  2  0
 49 50  1  0
 49 83  1  0
 50 51  2  0
 52 53  2  0
 52 57  1  0
 52 83  1  0
 53 54  1  0
 54 55  2  0
 55 56  1  0
 55 65  1  0
 56 57  2  0
 57 64  1  0
 58 70  1  0
 58 84  2  0
 59 60  1  0
 59 61  1  0
 59 62  1  0
 63 72  1  0
 68 69  1  0
M  END
$$$$
