ligand
     RDKit          3D

164171  0  0  1  0  0  0  0  0999 V2000
    7.9289   -0.9602    0.8351 C   0  0  0  0  0  0  0  0  0  0  0  0
    4.6870   -0.1766    1.8640 C   0  0  0  0  0  0  0  0  0  0  0  0
    2.2575   -1.6701   -0.4287 C   0  0  0  0  0  0  0  0  0  0  0  0
   -1.1496    0.4969   -1.2075 C   0  0  0  0  0  0  0  0  0  0  0  0
   -3.7107   -0.8404   -1.8671 C   0  0  0  0  0  0  0  0  0  0  0  0
   -0.2371   -0.6410   -0.9110 C   0  0  0  0  0  0  0  0  0  0  0  0
   -2.4100   -0.8312   -2.6273 C   0  0  0  0  0  0  0  0  0  0  0  0
  -10.8444   -0.6837   -0.1574 C   0  0  0  0  0  0  0  0  0  0  0  0
  -11.0991   -1.5636   -1.4581 C   0  0  1  0  0  0  0  0  0  0  0  0
   -4.7506   -0.6098    0.2609 C   0  0  0  0  0  0  0  0  0  0  0  0
  -12.3315   -2.3458   -1.1401 N   0  0  0  0  0  0  0  0  0  0  0  0
   -9.4701    0.0940    1.7088 C   0  0  2  0  0  0  0  0  0  0  0  0
   -7.0671   -0.5911    1.8212 C   0  0  0  0  0  0  0  0  0  0  0  0
   -9.3430    1.6207    1.6299 C   0  0  0  0  0  0  0  0  0  0  0  0
  -10.5934    5.6800    2.3741 C   0  0  0  0  0  0  0  0  0  0  0  0
  -14.2533   -3.5920    1.3332 C   0  0  0  0  0  0  0  0  0  0  0  0
   -8.4797   -1.3729   -0.1201 C   0  0  0  0  0  0  0  0  0  0  0  0
   -7.1401   -0.9493    0.4629 C   0  0  0  0  0  0  0  0  0  0  0  0
   -5.9733   -0.9521   -0.3025 C   0  0  0  0  0  0  0  0  0  0  0  0
   -4.6768   -0.2610    1.6035 C   0  0  0  0  0  0  0  0  0  0  0  0
   -5.8408   -0.2497    2.3899 C   0  0  0  0  0  0  0  0  0  0  0  0
   -8.3616   -0.5406    2.6228 C   0  0  0  0  0  0  0  0  0  0  0  0
  -13.7139   -4.0362   -0.0595 C   0  0  1  0  0  0  0  0  0  0  0  0
  -10.3131    3.7359    0.6815 C   0  0  2  0  0  0  0  0  0  0  0  0
   -9.0264    4.4583    0.2151 C   0  0  0  0  0  0  0  0  0  0  0  0
   -8.3242    5.2552    1.2808 C   0  0  0  0  0  0  0  0  0  0  0  0
   -9.2462    6.2713    1.9708 C   0  0  0  0  0  0  0  0  0  0  0  0
  -11.1004    4.4912    1.7897 C   0  0  0  0  0  0  0  0  0  0  0  0
  -12.3441    4.0365    2.2217 C   0  0  0  0  0  0  0  0  0  0  0  0
  -13.0961    4.7046    3.1948 C   0  0  0  0  0  0  0  0  0  0  0  0
  -12.3299   -3.3961   -0.2806 C   0  0  0  0  0  0  0  0  0  0  0  0
  -12.5978    5.8674    3.7659 C   0  0  0  0  0  0  0  0  0  0  0  0
  -11.3558    6.3450    3.3551 C   0  0  0  0  0  0  0  0  0  0  0  0
    1.0792   -1.7779    0.4331 C   0  0  0  0  0  0  0  0  0  0  0  0
    3.6464   -1.0227    1.2355 C   0  0  0  0  0  0  0  0  0  0  0  0
    5.5736   -2.0002    2.9783 C   0  0  0  0  0  0  0  0  0  0  0  0
    6.8358   -2.4450    2.4235 C   0  0  0  0  0  0  0  0  0  0  0  0
    8.2584   -1.0554   -1.6893 C   0  0  0  0  0  0  0  0  0  0  0  0
    8.4198    0.0036   -2.7646 C   0  0  0  0  0  0  0  0  0  0  0  0
    9.7744    0.7042   -2.6912 C   0  0  0  0  0  0  0  0  0  0  0  0
   10.3839    0.3095   -1.3936 C   0  0  2  0  0  0  0  0  0  0  0  0
    9.3441    0.6576   -0.3176 C   0  0  0  0  0  0  0  0  0  0  0  0
   11.9048    2.0246   -0.4587 C   0  0  0  0  0  0  0  0  0  0  0  0
   13.3106    2.0996   -0.3221 C   0  0  0  0  0  0  0  0  0  0  0  0
   13.8334    0.9666   -0.8788 C   0  0  0  0  0  0  0  0  0  0  0  0
   15.2326    0.5522   -0.9963 C   0  0  0  0  0  0  0  0  0  0  0  0
   16.2217    1.3298   -1.4989 C   0  0  0  0  0  0  0  0  0  0  0  0
   17.5405    0.8635   -1.5787 C   0  0  0  0  0  0  0  0  0  0  0  0
   17.8451   -0.4167   -1.1395 C   0  0  0  0  0  0  0  0  0  0  0  0
   16.8399   -1.2054   -0.6313 C   0  0  0  0  0  0  0  0  0  0  0  0
   15.5527   -0.7140   -0.5650 C   0  0  0  0  0  0  0  0  0  0  0  0
   19.9930   -1.0238   -0.1258 C   0  0  0  0  0  0  0  0  0  0  0  0
   20.5082   -2.2895    0.1059 C   0  0  0  0  0  0  0  0  0  0  0  0
   21.3590   -2.5412    1.1719 C   0  0  0  0  0  0  0  0  0  0  0  0
   21.6922   -1.5058    2.0098 C   0  0  0  0  0  0  0  0  0  0  0  0
   21.1804   -0.2282    1.7898 C   0  0  0  0  0  0  0  0  0  0  0  0
   20.3346    0.0138    0.7266 C   0  0  0  0  0  0  0  0  0  0  0  0
   13.9993    3.2073    0.3479 C   0  0  0  0  0  0  0  0  0  0  0  0
  -11.1439   -0.8014   -2.8030 C   0  0  0  0  0  0  0  0  0  0  0  0
   -9.8169   -0.1172   -3.1796 C   0  0  0  0  0  0  0  0  0  0  0  0
  -11.5686   -1.7371   -3.9547 C   0  0  0  0  0  0  0  0  0  0  0  0
  -12.2094    0.3626   -2.7598 C   0  0  0  0  0  0  0  0  0  0  0  0
  -13.4233   -6.0753   -1.4218 C   0  0  0  0  0  0  0  0  0  0  0  0
   19.8402    1.2368    0.5119 F   0  0  0  0  0  0  0  0  0  0  0  0
   22.5414   -1.7494    3.0631 F   0  0  0  0  0  0  0  0  0  0  0  0
  -10.2059    2.2885    0.8862 N   0  0  0  0  0  0  0  0  0  0  0  0
    8.4201   -0.5070   -0.3808 N   0  0  0  0  0  0  0  0  0  0  0  0
   11.6612    0.8752   -1.0698 N   0  0  0  0  0  0  0  0  0  0  0  0
   12.7863    0.2281   -1.3319 N   0  0  0  0  0  0  0  0  0  0  0  0
   15.3981    3.2313    0.4928 N   0  0  0  0  0  0  0  0  0  0  0  0
   10.9963    3.0277   -0.0172 N   0  0  0  0  0  0  0  0  0  0  0  0
  -13.6041   -5.5196   -0.0736 N   0  0  0  0  0  0  0  0  0  0  0  0
   -9.6334   -0.6355    0.4404 N   0  0  0  0  0  0  0  0  0  0  0  0
   -8.4354    2.1808    2.2784 O   0  0  0  0  0  0  0  0  0  0  0  0
   -3.6106   -0.5958   -0.4962 O   0  0  0  0  0  0  0  0  0  0  0  0
   -1.6838    0.3511   -2.5087 O   0  0  0  0  0  0  0  0  0  0  0  0
    0.3058   -0.5722    0.3643 O   0  0  0  0  0  0  0  0  0  0  0  0
  -11.3248   -3.8170    0.2896 O   0  0  0  0  0  0  0  0  0  0  0  0
    3.1250   -0.6015    0.0213 O   0  0  0  0  0  0  0  0  0  0  0  0
    5.1220   -0.7462    3.0748 O   0  0  0  0  0  0  0  0  0  0  0  0
    7.2713   -2.1449    1.1460 O   0  0  0  0  0  0  0  0  0  0  0  0
    8.0908   -0.2057    1.8731 O   0  0  0  0  0  0  0  0  0  0  0  0
   19.1621   -0.8958   -1.2099 O   0  0  0  0  0  0  0  0  0  0  0  0
   13.2793    4.1503    0.7991 O   0  0  0  0  0  0  0  0  0  0  0  0
  -11.8414   -0.0844    0.2510 O   0  0  0  0  0  0  0  0  0  0  0  0
    5.4371    0.1529    1.1811 H   0  0  0  0  0  0  0  0  0  0  0  0
    4.1587    0.7609    2.2371 H   0  0  0  0  0  0  0  0  0  0  0  0
    2.1749   -1.6091   -1.4947 H   0  0  0  0  0  0  0  0  0  0  0  0
    2.9083   -2.6010   -0.1955 H   0  0  0  0  0  0  0  0  0  0  0  0
   -1.8257    0.7112   -0.4204 H   0  0  0  0  0  0  0  0  0  0  0  0
   -0.4735    1.4051   -1.3105 H   0  0  0  0  0  0  0  0  0  0  0  0
   -4.2774   -1.7994   -2.0716 H   0  0  0  0  0  0  0  0  0  0  0  0
   -4.3877   -0.0755   -2.3697 H   0  0  0  0  0  0  0  0  0  0  0  0
   -0.7788   -1.6309   -0.9043 H   0  0  0  0  0  0  0  0  0  0  0  0
    0.5516   -0.7526   -1.6688 H   0  0  0  0  0  0  0  0  0  0  0  0
   -2.6668   -0.8410   -3.7505 H   0  0  0  0  0  0  0  0  0  0  0  0
   -1.8100   -1.7488   -2.5277 H   0  0  0  0  0  0  0  0  0  0  0  0
  -10.2361   -2.2223   -1.5064 H   0  0  0  0  0  0  0  0  0  0  0  0
  -13.1785   -2.0114   -1.6379 H   0  0  0  0  0  0  0  0  0  0  0  0
  -10.3950   -0.1130    2.3331 H   0  0  0  0  0  0  0  0  0  0  0  0
  -15.0064   -4.3381    1.5836 H   0  0  0  0  0  0  0  0  0  0  0  0
  -13.4216   -3.6039    2.0395 H   0  0  0  0  0  0  0  0  0  0  0  0
  -14.6512   -2.5758    1.1503 H   0  0  0  0  0  0  0  0  0  0  0  0
   -8.6026   -2.4416    0.2179 H   0  0  0  0  0  0  0  0  0  0  0  0
   -8.3647   -1.3637   -1.1645 H   0  0  0  0  0  0  0  0  0  0  0  0
   -6.0782   -1.2308   -1.3548 H   0  0  0  0  0  0  0  0  0  0  0  0
   -3.7706    0.0064    2.0869 H   0  0  0  0  0  0  0  0  0  0  0  0
   -5.8017    0.0244    3.4340 H   0  0  0  0  0  0  0  0  0  0  0  0
   -8.7303   -1.5357    2.8288 H   0  0  0  0  0  0  0  0  0  0  0  0
   -8.2937    0.1646    3.4470 H   0  0  0  0  0  0  0  0  0  0  0  0
  -14.4089   -3.7746   -0.8427 H   0  0  0  0  0  0  0  0  0  0  0  0
  -10.9880    3.9103   -0.2133 H   0  0  0  0  0  0  0  0  0  0  0  0
   -8.3386    3.6006   -0.0106 H   0  0  0  0  0  0  0  0  0  0  0  0
   -9.1468    5.0155   -0.7086 H   0  0  0  0  0  0  0  0  0  0  0  0
   -7.6395    5.9334    0.6728 H   0  0  0  0  0  0  0  0  0  0  0  0
   -7.6613    4.7449    1.9450 H   0  0  0  0  0  0  0  0  0  0  0  0
   -8.6825    6.5535    2.9104 H   0  0  0  0  0  0  0  0  0  0  0  0
   -9.3694    7.1883    1.3831 H   0  0  0  0  0  0  0  0  0  0  0  0
  -12.7281    3.1420    1.7858 H   0  0  0  0  0  0  0  0  0  0  0  0
  -14.0294    4.2942    3.4688 H   0  0  0  0  0  0  0  0  0  0  0  0
  -13.1251    6.4094    4.5112 H   0  0  0  0  0  0  0  0  0  0  0  0
  -10.9063    7.2274    3.7531 H   0  0  0  0  0  0  0  0  0  0  0  0
    0.4122   -2.5892   -0.0576 H   0  0  0  0  0  0  0  0  0  0  0  0
    1.2161   -2.1098    1.4552 H   0  0  0  0  0  0  0  0  0  0  0  0
    3.9663   -2.0767    1.0502 H   0  0  0  0  0  0  0  0  0  0  0  0
    2.7507   -1.1268    1.9286 H   0  0  0  0  0  0  0  0  0  0  0  0
    4.7285   -2.7471    2.7116 H   0  0  0  0  0  0  0  0  0  0  0  0
    5.6499   -2.3249    4.1136 H   0  0  0  0  0  0  0  0  0  0  0  0
    7.7349   -2.2041    3.1144 H   0  0  0  0  0  0  0  0  0  0  0  0
    6.8760   -3.5954    2.4791 H   0  0  0  0  0  0  0  0  0  0  0  0
    8.8945   -1.9120   -1.9371 H   0  0  0  0  0  0  0  0  0  0  0  0
    7.1967   -1.4446   -1.8052 H   0  0  0  0  0  0  0  0  0  0  0  0
    8.2768   -0.4730   -3.7461 H   0  0  0  0  0  0  0  0  0  0  0  0
    7.6031    0.7387   -2.5691 H   0  0  0  0  0  0  0  0  0  0  0  0
    9.5725    1.7936   -2.7822 H   0  0  0  0  0  0  0  0  0  0  0  0
   10.3764    0.3441   -3.5293 H   0  0  0  0  0  0  0  0  0  0  0  0
   10.4468   -0.8114   -1.3926 H   0  0  0  0  0  0  0  0  0  0  0  0
    8.7970    1.5410   -0.6676 H   0  0  0  0  0  0  0  0  0  0  0  0
    9.8040    0.7177    0.6702 H   0  0  0  0  0  0  0  0  0  0  0  0
   16.0363    2.3460   -1.8941 H   0  0  0  0  0  0  0  0  0  0  0  0
   18.3283    1.4870   -1.9783 H   0  0  0  0  0  0  0  0  0  0  0  0
   17.0803   -2.2240   -0.2830 H   0  0  0  0  0  0  0  0  0  0  0  0
   14.7952   -1.3928   -0.1458 H   0  0  0  0  0  0  0  0  0  0  0  0
   20.2524   -3.1165   -0.5527 H   0  0  0  0  0  0  0  0  0  0  0  0
   21.7203   -3.5521    1.2844 H   0  0  0  0  0  0  0  0  0  0  0  0
   21.4806    0.5398    2.4843 H   0  0  0  0  0  0  0  0  0  0  0  0
  -10.0982    0.5546   -4.0129 H   0  0  0  0  0  0  0  0  0  0  0  0
   -9.0681   -0.8589   -3.4446 H   0  0  0  0  0  0  0  0  0  0  0  0
   -9.5442    0.5259   -2.3272 H   0  0  0  0  0  0  0  0  0  0  0  0
  -12.4335   -1.2902   -4.4984 H   0  0  0  0  0  0  0  0  0  0  0  0
  -10.7409   -1.8664   -4.6628 H   0  0  0  0  0  0  0  0  0  0  0  0
  -11.8388   -2.7354   -3.5272 H   0  0  0  0  0  0  0  0  0  0  0  0
  -12.4596    0.5280   -3.8116 H   0  0  0  0  0  0  0  0  0  0  0  0
  -13.0434    0.0248   -2.1424 H   0  0  0  0  0  0  0  0  0  0  0  0
  -11.6525    1.2238   -2.3685 H   0  0  0  0  0  0  0  0  0  0  0  0
  -12.6163   -6.8165   -1.4147 H   0  0  0  0  0  0  0  0  0  0  0  0
  -14.3516   -6.6018   -1.7073 H   0  0  0  0  0  0  0  0  0  0  0  0
  -13.1850   -5.2298   -2.0773 H   0  0  0  0  0  0  0  0  0  0  0  0
  -10.9194    1.8690    0.3283 H   0  0  0  0  0  0  0  0  0  0  0  0
   15.8689    2.5183    1.0701 H   0  0  0  0  0  0  0  0  0  0  0  0
   15.9530    3.9610    0.0212 H   0  0  0  0  0  0  0  0  0  0  0  0
   10.7755    3.8642   -0.6152 H   0  0  0  0  0  0  0  0  0  0  0  0
   10.5257    2.9601    0.9082 H   0  0  0  0  0  0  0  0  0  0  0  0
  -14.4784   -5.8407    0.3647 H   0  0  0  0  0  0  0  0  0  0  0  0
  1 67  1  0
  1 81  1  0
  1 82  2  0
  2 35  1  0
  2 80  1  0
  3 34  1  0
  3 79  1  0
  4  6  1  0
  4 76  1  0
  5  7  1  0
  5 75  1  0
  6 77  1  0
  7 76  1  0
  8  9  1  0
  8 73  1  0
  8 85  2  0
  9 11  1  0
  9 59  1  0
 10 19  2  0
 10 20  1  0
 10 75  1  0
 11 31  1  0
 12 14  1  0
 12 22  1  0
 12 73  1  0
 13 18  2  0
 13 21  1  0
 13 22  1  0
 14 66  1  0
 14 74  2  0
 15 27  1  0
 15 28  2  0
 15 33  1  0
 16 23  1  0
 17 18  1  0
 17 73  1  0
 18 19  1  0
 20 21  2  0
 23 31  1  0
 23 72  1  0
 24 25  1  0
 24 28  1  0
 24 66  1  0
 25 26  1  0
 26 27  1  0
 28 29  1  0
 29 30  2  0
 30 32  1  0
 31 78  2  0
 32 33  2  0
 34 77  1  0
 35 79  1  0
 36 37  1  0
 36 80  1  0
 37 81  1  0
 38 39  1  0
 38 67  1  0
 39 40  1  0
 40 41  1  0
 41 42  1  0
 41 68  1  0
 42 67  1  0
 43 44  2  0
 43 68  1  0
 43 71  1  0
 44 45  1  0
 44 58  1  0
 45 46  1  0
 45 69  2  0
 46 47  2  0
 46 51  1  0
 47 48  1  0
 48 49  2  0
 49 50  1  0
 49 83  1  0
 50 51  2  0
 52 53  2  0
 52 57  1  0
 52 83  1  0
 53 54  1  0
 54 55  2  0
 55 56  1  0
 55 65  1  0
 56 57  2  0
 57 64  1  0
 58 70  1  0
 58 84  2  0
 59 60  1  0
 59 61  1  0
 59 62  1  0
 63 72  1  0
 68 69  1  0
  2 86  1  0
  2 87  1  0
  3 88  1  0
  3 89  1  0
  4 90  1  0
  4 91  1  0
  5 92  1  0
  5 93  1  0
  6 94  1  0
  6 95  1  0
  7 96  1  0
  7 97  1  0
  9 98  1  6
 11 99  1  0
 12100  1  1
 16101  1  0
 16102  1  0
 16103  1  0
 17104  1  0
 17105  1  0
 19106  1  0
 20107  1  0
 21108  1  0
 22109  1  0
 22110  1  0
 23111  1  6
 24112  1  6
 25113  1  0
 25114  1  0
 26115  1  0
 26116  1  0
 27117  1  0
 27118  1  0
 29119  1  0
 30120  1  0
 32121  1  0
 33122  1  0
 34123  1  0
 34124  1  0
 35125  1  0
 35126  1  0
 36127  1  0
 36128  1  0
 37129  1  0
 37130  1  0
 38131  1  0
 38132  1  0
 39133  1  0
 39134  1  0
 40135  1  0
 40136  1  0
 41137  1  6
 42138  1  0
 42139  1  0
 47140  1  0
 48141  1  0
 50142  1  0
 51143  1  0
 53144  1  0
 54145  1  0
 56146  1  0
 60147  1  0
 60148  1  0
 60149  1  0
 61150  1  0
 61151  1  0
 61152  1  0
 62153  1  0
 62154  1  0
 62155  1  0
 63156  1  0
 63157  1  0
 63158  1  0
 66159  1  0
 70160  1  0
 70161  1  0
 71162  1  0
 71163  1  0
 72164  1  0
M  END
$$$$
